Version 4
SHEET 1 1736 680
WIRE -416 -128 -464 -128
WIRE -128 -128 -336 -128
WIRE -16 -128 -128 -128
WIRE 144 -128 64 -128
WIRE 352 -128 144 -128
WIRE 464 -128 432 -128
WIRE 768 -112 720 -112
WIRE 1056 -112 848 -112
WIRE 1168 -112 1056 -112
WIRE 1328 -112 1248 -112
WIRE 1536 -112 1328 -112
WIRE 1648 -112 1616 -112
WIRE -128 -64 -128 -128
WIRE 144 -64 144 -128
WIRE 464 -64 464 -128
WIRE 720 -64 720 -112
WIRE 1056 -48 1056 -112
WIRE 1328 -48 1328 -112
WIRE 464 32 464 16
WIRE -128 48 -128 0
WIRE 144 48 144 0
WIRE 1648 48 1648 -112
WIRE -464 64 -464 -128
WIRE 1056 64 1056 16
WIRE 1328 64 1328 16
WIRE 720 80 720 16
WIRE -416 224 -464 224
WIRE -128 224 -336 224
WIRE -16 224 -128 224
WIRE 144 224 64 224
WIRE 352 224 144 224
WIRE 480 224 432 224
WIRE 768 256 720 256
WIRE 1056 256 848 256
WIRE 1168 256 1056 256
WIRE 1328 256 1248 256
WIRE 1536 256 1328 256
WIRE 1664 256 1616 256
WIRE -464 272 -464 224
WIRE -128 288 -128 224
WIRE 144 288 144 224
WIRE 720 304 720 256
WIRE 1056 320 1056 256
WIRE -464 400 -464 352
WIRE -128 400 -128 352
WIRE 144 400 144 352
WIRE 720 432 720 384
WIRE 1056 432 1056 384
WIRE 1328 432 1328 256
WIRE 1328 432 1056 432
FLAG -128 400 0
FLAG 144 400 0
FLAG 480 224 0
FLAG -464 400 0
FLAG 1056 64 0
FLAG 1328 64 0
FLAG 1664 256 0
FLAG 720 432 0
FLAG 720 80 0
FLAG 1648 48 0
FLAG -128 48 0
FLAG 144 48 0
FLAG -464 64 0
FLAG 464 32 0
SYMBOL ind -320 208 R90
WINDOW 0 5 56 VBottom 2
WINDOW 3 32 56 VTop 2
SYMATTR InstName L1
SYMATTR Value 22µ
SYMBOL ind 336 208 M90
WINDOW 0 5 56 VBottom 2
WINDOW 3 37 56 VTop 2
SYMATTR InstName L2
SYMATTR Value 22µ
SYMBOL res 80 208 R90
WINDOW 0 0 56 VBottom 2
WINDOW 3 32 56 VTop 2
SYMATTR InstName R2
SYMATTR Value 8
SYMBOL cap -144 288 R0
SYMATTR InstName C3
SYMATTR Value 110n
SYMBOL cap 160 288 M0
SYMATTR InstName C4
SYMATTR Value 110n
SYMBOL voltage -464 256 R0
WINDOW 123 24 44 Left 2
WINDOW 39 0 0 Left 2
SYMATTR InstName V2
SYMATTR Value ""
SYMATTR Value2 AC 1
SYMBOL res 1264 -128 R90
WINDOW 0 0 56 VBottom 2
WINDOW 3 32 56 VTop 2
SYMATTR InstName R3
SYMATTR Value 8
SYMBOL cap 1040 -48 R0
SYMATTR InstName C5
SYMATTR Value 1n
SYMBOL cap 1344 -48 M0
SYMATTR InstName C6
SYMATTR Value 1n
SYMBOL ind2 864 -96 M270
WINDOW 0 32 56 VTop 2
WINDOW 3 4 56 VBottom 2
SYMATTR InstName L5
SYMATTR Value 22µ
SYMBOL ind2 1632 -128 R90
WINDOW 0 4 56 VBottom 2
WINDOW 3 32 56 VTop 2
SYMATTR InstName L6
SYMATTR Value 10µ
SYMBOL ind 864 240 R90
WINDOW 0 5 56 VBottom 2
WINDOW 3 32 56 VTop 2
SYMATTR InstName L7
SYMATTR Value 22µ
SYMBOL ind 1520 240 M90
WINDOW 0 5 56 VBottom 2
WINDOW 3 37 56 VTop 2
SYMATTR InstName L8
SYMATTR Value 22µ
SYMBOL res 1264 240 R90
WINDOW 0 0 56 VBottom 2
WINDOW 3 32 56 VTop 2
SYMATTR InstName R4
SYMATTR Value 8
SYMBOL cap 1040 320 R0
SYMATTR InstName C7
SYMATTR Value 220n
SYMBOL voltage 720 288 R0
WINDOW 123 24 44 Left 2
WINDOW 39 0 0 Left 2
SYMATTR InstName V4
SYMATTR Value ""
SYMATTR Value2 AC 1
SYMBOL voltage 720 -80 R0
WINDOW 123 24 44 Left 2
WINDOW 39 0 0 Left 2
SYMATTR InstName V5
SYMATTR Value ""
SYMATTR Value2 AC 1
SYMBOL res 80 -144 R90
WINDOW 0 0 56 VBottom 2
WINDOW 3 32 56 VTop 2
SYMATTR InstName R1
SYMATTR Value 8
SYMBOL cap -144 -64 R0
SYMATTR InstName C1
SYMATTR Value 1n
SYMBOL cap 160 -64 M0
SYMATTR InstName C2
SYMATTR Value 1n
SYMBOL ind2 -320 -112 M270
WINDOW 0 32 56 VTop 2
WINDOW 3 4 56 VBottom 2
SYMATTR InstName L3
SYMATTR Value 22µ
SYMBOL ind2 448 -144 R90
WINDOW 0 4 56 VBottom 2
WINDOW 3 32 56 VTop 2
SYMATTR InstName L4
SYMATTR Value 10µ
SYMBOL voltage 464 -80 R0
WINDOW 123 24 44 Left 2
WINDOW 39 0 0 Left 2
SYMATTR InstName V1
SYMATTR Value ""
SYMATTR Value2 AC 1
TEXT 816 -248 Left 2 !K1 L3 L4 0.75
TEXT 984 -248 Left 2 !K2 L5 L6 0.75
TEXT -498 456 Left 2 !.ac dec 100 1 1Mega
