**$ENCRYPTED_LIB
**$INTERFACE
* LMH7322
*****************************************************************************
* (C) Copyright 2012 Texas Instruments Incorporated. All rights reserved.
*****************************************************************************
** This model is designed as an aid for customers of Texas Instruments.
** TI and its licensors and suppliers make no warranties, either expressed
** or implied, with respect to this model, including the warranties of
** merchantability or fitness for a particular purpose.  The model is
** provided solely on an "as is" basis.  The entire risk as to its quality
** and performance is with the customer.
*****************************************************************************
*
** Released by: WEBENCH(R) Design Center, Texas Instruments Inc.
* Part: LMH7322
* Date: 7/02/2012
* Model Type: All In One
* Simulator: PSPICE
* Simulator Version: 16.0
* EVM Order Number: N/A
* EVM Users Guide: N/A
* Datasheet: SNOSAU8H
*
* Model Version: 1.0
*
*****************************************************************************
*
* Updates:
*
* Version 1.0 : Release to Web
*
*****************************************************************************
* Notes: This model is developed for operation in 5V supply.
* The model mostly is targeted for transient simulations and *captures the following parameters:
*Input bias current, input offset current, offset voltage, *Propagation delay time. The mentioned parameters are modeled as *TEMP dependent. The following parameters are also modeled:
*VOH, VOL, VOD, IB_LE, CMRR, PSRR, IVCCi, IVCCO, programmable *hysteresis, differential latch, Propagation delay vs overdrive, *latch to output delay time, rise time and fall time.
*****************************************************************************
*$
*NONAME (PSpice format)
.SUBCKT LMH7322 LE VEE IN+ IN- LEZ VCCI QBOUT QOUT VCCO RHREF RHYS
$CDNENCSTART
eee8c5c7a2bc4b01f045f303678664e7916da0bae22e8cb0bba041dd67c69ce448ea70148a9ac1670c8926c1ac5057c8ccfcd77bf87ca9dcca65bc61b7a6f267
3ae31ff4830431fcde4d80612176cac200317787af90b25f20ef067957ecbac041b303dd07b48779a8799eb0cb690e254730e17bcf479c181e7c4b3d196b015e
7b4a6bbc8e3f9e4beadb19293b237b910a869bb6968ed7e020ef067957ecbac041b303dd07b48779a8799eb0cb690e254730e17bcf479c181e7c4b3d196b015e
b8dc643d406e9b111e0bac2918c322715958fcfd9059c18b523b1f4465bce58d0f5bb5b9c5d4fbafee5b5520b3b5cb4d9c2cfde3b677379b19967fe5840a6033
12d2018c778dc7a5eadb19293b237b915e6ba405d4a149e4ae91457c20320cdee56fb42753db687f639d92f8758fa4704cd930066c3f498a2dc8d6849bd952f6
d329c5e27a736f5df08db5d810a9a1ca79cd671f3aa1f940ca0f96be607a9650dc38845be27642e9e82a669a98054250dc0a30fe75ad74c4e9714d6df705d2a0
bd5b78ae387391196e1a3d0a8646cbc4e48b7a312d73e3f7188ddffb90a57b770154ddef53507acaaa1c9af660fa435e2cabaec1b9b770209363f80cf1a6e661
3e57641f08fb2680bdd8977022a2eb9baac65c8614b48ce4188ddffb90a57b770154ddef53507acaaa1c9af660fa435e2cabaec1b9b770209363f80cf1a6e661
7d2e810e7b50a8a0705bbbedb4cff6c4b84793e4a589c2f97dd478895cf28b8236be05f07c91b2bfbadb4e742c5da009036baf4635d5d1fb2bc3dae93f05598b
0e84779c45a616932ddc9797c329f0420a17e32bdf5d56da7fdf1d7e213c73dc188ddffb90a57b770154ddef53507acaaa1c9af660fa435e303c69e759859710
9d2de537c9a59af4b81892d9a5a53941ba9ec9deef8444bba88a9dcc70a8f7944f3f88647b200374a7f4d71059fa5230ebae59c190e868db6405e8fcf1b2399a
93956cbf80841977b81892d9a5a5394102ad93d405ca8e1136be05f07c91b2bfbadb4e742c5da009036baf4635d5d1fbf93ec77eca5e24ce85c6ba5be16eeebd
e3408ba9f32ee505cac6de89af041bc6382e2e6c43b26404b368a365c40289885792fc3bd1df51f2161146b2e865e0b3a88a9dcc70a8f794baed293752c4cca2
3e59aad5d5afb7a0e8a8f51e8988acd3382e2e6c43b26404b368a365c40289885e961a401ad5cd04161146b2e865e0b3a88a9dcc70a8f794baed293752c4cca2
e8a3dc121b162709fd21f8b6590c57a1382e2e6c43b26404a7c68c6d088732535792fc3bd1df51f2161146b2e865e0b3a88a9dcc70a8f794baed293752c4cca2
6bfb5d61ac69ca8faa9e571b1d115d74382e2e6c43b26404a7c68c6d088732535e961a401ad5cd04161146b2e865e0b3a88a9dcc70a8f794baed293752c4cca2
a764cb5d1da64b7a3b8b4a07dd2a50454f84616c8058c0010704c3fcfd7601ca46c907e75ffa80f2e56fb42753db687f639d92f8758fa47039384033c16e06bd
f74a30e26fe33baad04e197d04f58eb2e520c3ae66013ba8e0d173c2bb255915188ddffb90a57b770154ddef53507acaaa1c9af660fa435e303c69e759859710
a978e94c36773adb7f5fd9faf8e24ed92099984b247109cab54fc107386389ab36be05f07c91b2bfbadb4e742c5da009036baf4635d5d1fb2bc3dae93f05598b
0ded403d437166ceef80a30e8f202a90075079ed5529aa12ca0f96be607a9650dc38845be27642e9e82a669a98054250dc0a30fe75ad74c4e9714d6df705d2a0
f6f36ac00c522ffeef80a30e8f202a90354838a68faadfee5e6410b43908bf190f5bb5b9c5d4fbafee5b5520b3b5cb4d9c2cfde3b677379b19967fe5840a6033
65938c97d4f143a5ef80a30e8f202a902e250c70ae40cbeb4b2db97a6dbabcf2ca0f96be607a9650dc38845be27642e9e82a669a98054250b69c51d70849197b
fa46802467ec21b3783b3da688ab434798040c277f41bfd094eb5f20595e06db23ad9f9601c9dca9e56fb42753db687f639d92f8758fa47039384033c16e06bd
45faffa973ac9b6feadb19293b237b916f822c20aeb8cdc7fd590ee6b9d2e3160f5bb5b9c5d4fbafee5b5520b3b5cb4d9c2cfde3b677379b19967fe5840a6033
8a9596f166c934820168ae17455104d5181083e80349b00a1af998f0c8ec87a220ef067957ecbac041b303dd07b48779a8799eb0cb690e2586579d3688dc1b35
ac8691a48af45139eadb19293b237b91df2d4688216ffa37a6ce414b5c1ab245869ff84b5218dc2a188ddffb90a57b770154ddef53507aca4bc23991d1afbf24
a978e94c36773adb00fff63f00f1813b8d12298cb95854ebdb494b3c03aa967436be05f07c91b2bfbadb4e742c5da009036baf4635d5d1fb2bc3dae93f05598b
f2cc890912ccf58d369c624c63ba15afc10bd159d12eaf9b7de780a21b74a7550f5bb5b9c5d4fbafee5b5520b3b5cb4d9c2cfde3b677379b19967fe5840a6033
056e14097eadb391d11597e162f64911349fa1c46c7c1fd436806a8e381bf9a0c5666d8e46546ebc263e4096afdf9f3117d31d5a946fafc36d9eb3df7968a104
a0e938c77ef8591587397639517d2ec886a09a201bde8d67ca0f96be607a9650dc38845be27642e9e82a669a98054250dc0a30fe75ad74c4e9714d6df705d2a0
2fe921c25199d9b2e42d47e2c630726e20360ce7a84b2fcc188ddffb90a57b770154ddef53507acaaa1c9af660fa435e2cabaec1b9b770209363f80cf1a6e661
f7bbdd21893ba915006cc44a99fe050da73e759249526d6e62ba89f22c9a611f45cb8f980e9777217de780a21b74a7550f5bb5b9c5d4fbaf4cdd1fa674b60447
a978e94c36773adb7836cde7d3b6992c32afdfec2d24cefde52ba2e58f7c8a355732842c7b35416b383b4559a6adcb2a031f0be91d48ac4a9d6bedf9d0034ac8
a81728447d8a11e83960b272a42d8111f9dfc554b277fda5a88a9dcc70a8f7944f3f88647b200374a7f4d71059fa5230ebae59c190e868db6405e8fcf1b2399a
07d517d38b0949d48f8562aa0301a2a793171286997e428a188ddffb90a57b770154ddef53507acaaa1c9af660fa435e2cabaec1b9b770209363f80cf1a6e661
8ae48189bc203cffb9bcccc953b2ea7a54d3dd90cfc3ddca36be05f07c91b2bfbadb4e742c5da009036baf4635d5d1fbf93ec77eca5e24ce85c6ba5be16eeebd
e175e46269ccd7321e0bac2918c32271fb2d4e920b400ce04161c4aa5f4644af7c4b9ba57f232dd4cc2ba80c4befe2f15b2b72ecc5fd1b6eebf95e04eae6713c
a978e94c36773adb08b2f127de21e0bf658f76ce584ec0281308ba9db9265ec31e567905e5b8e516a88a9dcc70a8f7944f3f88647b200374842f10e7085a931c
bf6e10e5e4a954b2275f018315fdb142cc3abbea0f54e70c480be8c055847acd56f46777178b1ebc46c907e75ffa80f2e56fb42753db687f16237d58376574a3
a978e94c36773adb7836cde7d3b6992c32afdfec2d24cefde52ba2e58f7c8a355732842c7b35416b383b4559a6adcb2a031f0be91d48ac4a9d6bedf9d0034ac8
7720dbafca7b7a375b5c00dc2c611644b458847b7ec5782caf2c8b89d8a12b7888163c139cc562f620ef067957ecbac041b303dd07b487790d3f99e3d12ad236
9c9382150c1911b8e1c85306e4d60ca8ec4857c16c8d4e904aebb1baa5c6173356dbb426633f73aa20ef067957ecbac041b303dd07b487790d3f99e3d12ad236
00f8b0f7ffa785fa9584b2188e00b0e19b8d3130ea3e2a382eb256ea17866137f36148891734e5a28af2d651367c161936be05f07c91b2bf625cc0c0d29c9a4e
bc75b9d0355b0c4528c7ac1e36fd99d18492e52ca990713742488b9b22e7a07f4e9724a730d5f5a85d432a3addaca5ae188ddffb90a57b7775af886ea212e78b
45f4bb15bdf6921e591bd21ba6a5314d6d26de7ed5c358d83bca306af5ee77fe969f479728bca59d20ef067957ecbac041b303dd07b487790d3f99e3d12ad236
a978e94c36773adb17a859bac9aefffba88a9dcc70a8f7944f3f88647b200374a7f4d71059fa5230ebae59c190e868dbc648f185b971d14ea43cef84d6740938
40d59d3f9e723ec3603683319967b76e43eec8eb21e8ae48fe9856212723be43195927e356e2c9340f5bb5b9c5d4fbafee5b5520b3b5cb4d2ecf042c86ddc316
a978e94c36773adb17a859bac9aefffba88a9dcc70a8f7944f3f88647b200374a7f4d71059fa5230ebae59c190e868dbc648f185b971d14ea43cef84d6740938
cc1ce451d38946261e0bac2918c32271b41ac71d9190f5bfc29510f109534645e36e0eff41a986f1cc2ba80c4befe2f15b2b72ecc5fd1b6eebf95e04eae6713c
a978e94c36773adb08b2f127de21e0bf658f76ce584ec0281308ba9db9265ec31e567905e5b8e516a88a9dcc70a8f7944f3f88647b200374842f10e7085a931c
a77a0b7d371157a8dda09a46f5f0d0a1f5eac31e60eaa38440dbd6368dc4192cca0f96be607a9650dc38845be27642e9e82a669a98054250b69c51d70849197b
a978e94c36773adbc55f98b465107956ca0f96be607a9650dc38845be27642e9e82a669a98054250dc0a30fe75ad74c4a0f0538e417072c42376446c78912fe1
b4d94ceab0a648b2a613e30885d94906fd2663fb729f4ee9a52824f120c0fbbde847dda77d5f9443c5666d8e46546ebc263e4096afdf9f31469f1210272acac3
35b9107f8ed5e5a5ff85fc9812abd0b293171286997e428a188ddffb90a57b770154ddef53507acaaa1c9af660fa435e2cabaec1b9b770209363f80cf1a6e661
624770b5f66db44e3e1dd3f378b3a6e47044ea4197cdc27936be05f07c91b2bfbadb4e742c5da009036baf4635d5d1fbf93ec77eca5e24ce85c6ba5be16eeebd
bdd0b1d03293b358ef80a30e8f202a90a6e49fb3c60c9ed6a94a7661b58b69d40f5bb5b9c5d4fbafee5b5520b3b5cb4d9c2cfde3b677379b19967fe5840a6033
dacd8ed31627d8fd5b5c00dc2c611644c05d12b3c2e813e1ddc90d3b38255d17195927e356e2c9340f5bb5b9c5d4fbafee5b5520b3b5cb4d2ecf042c86ddc316
a037ae9929b61b828d0ad4ffb2aa63ceabcb69914f66e259c6bb1bd03c702389317a2ae726111dfde847dda77d5f9443c5666d8e46546ebc4249bb06a4e27ba7
e476dd2dbeab07af81a3a359168d8e8457bdb33c3af28e883b0bceb0467f290d502732243e9d9528e56fb42753db687f639d92f8758fa47039384033c16e06bd
d1eef0ba38bb4038d5086b0cc4015974046f1bf9565c9ab93a640e88ece3cdadca0f96be607a9650dc38845be27642e9e82a669a98054250b69c51d70849197b
8548215614db6af3d36346597ada2108b97b02d7725fa6c8188ddffb90a57b770154ddef53507acaaa1c9af660fa435e2cabaec1b9b770209363f80cf1a6e661
f6ac43e363a11095345114de59ed78bf90cf4ac94686c0f82826b7c8defaf7d40f5bb5b9c5d4fbafee5b5520b3b5cb4d9c2cfde3b677379b19967fe5840a6033
0ab3eab7d19021d2dedaf354c56584bff47f2933b86af640384f99a2b7de874aca0f96be607a9650dc38845be27642e9e82a669a98054250b69c51d70849197b
a978e94c36773adbcb30e0d9e7e62f6984ab6b0f1fcfe57606ace28e1a8cacb731bbfa71d5efb6fed480434441257bf036be05f07c91b2bf625cc0c0d29c9a4e
6f4f6f21b39202b4358f3255c4dba0ed3428cbb9af5db9c040c38178e57b4f2fecc785c25b41489846c907e75ffa80f2e56fb42753db687f16237d58376574a3
a978e94c36773adb44286f328a01b559e7f7f825b09e63993267e49cc155bb17aad0cae5ebf3019ac5666d8e46546ebc263e4096afdf9f31469f1210272acac3
445b2fc8479d4e5e5b409768934ee48b01b92349597eac237de780a21b74a7550f5bb5b9c5d4fbafee5b5520b3b5cb4d9c2cfde3b677379b19967fe5840a6033
5ea0817094e0792aa613e30885d9490647c688b7c604316bbf1ee911780421dde56fb42753db687f639d92f8758fa4704cd930066c3f498a2dc8d6849bd952f6
$CDNENCFINISH
.ENDS
 .SUBCKT D_latch_0 Vout Latch Vin
$CDNENCSTART
eee8c5c7a2bc4b01f045f303678664e7916da0bae22e8cb0bba041dd67c69ce448ea70148a9ac1670c8926c1ac5057c8ccfcd77bf87ca9dcca65bc61b7a6f267
9c9382150c1911b8f99e8e57e1c839d89f6eda8989aed4fc77f0e9a2dbc65d5536806a8e381bf9a0c5666d8e46546ebc263e4096afdf9f31469f1210272acac3
e175e46269ccd732e0b4cb3f787485f5bf62e74d10f72d9ed2bbd7e847d638e1d38f1c945d0a9c9aa88a9dcc70a8f7944f3f88647b200374842f10e7085a931c
a978e94c36773adb44286f328a01b559e7f7f825b09e63995510c65f94ec5b7b20ef067957ecbac041b303dd07b48779a8799eb0cb690e2586579d3688dc1b35
6bfb5d61ac69ca8f8c8c5b4f23f830afe9f5419ea6e84cda5314e44f8dbca9aa638060d6c5030f4ae847dda77d5f9443c5666d8e46546ebc4249bb06a4e27ba7
a978e94c36773adb44286f328a01b559e7f7f825b09e63995510c65f94ec5b7b20ef067957ecbac041b303dd07b48779a8799eb0cb690e2586579d3688dc1b35
b4d94ceab0a648b24f51c2a69586313005f096111c89bc215314e44f8dbca9aa638060d6c5030f4ae847dda77d5f9443c5666d8e46546ebc4249bb06a4e27ba7
a978e94c36773adb44286f328a01b559e7f7f825b09e63995510c65f94ec5b7b20ef067957ecbac041b303dd07b48779a8799eb0cb690e2586579d3688dc1b35
e476dd2dbeab07af3ac58eab0f79a7d88768b5433b1a6a11b32eae440ae09a470ea0529ba0902d354a446a12e69ff6ff0f5bb5b9c5d4fbaf4cdd1fa674b60447
a978e94c36773adb44286f328a01b559e7f7f825b09e63995510c65f94ec5b7b20ef067957ecbac041b303dd07b48779a8799eb0cb690e2586579d3688dc1b35
e8a3dc121b1627098c6e2858ca38a21d15e5460f9730e47c8dcea2cdd2d3d5cc21002117c72e2b83ca0f96be607a9650dc38845be27642e9a881750cbea0b0e3
a978e94c36773adb44286f328a01b559e7f7f825b09e63995510c65f94ec5b7b20ef067957ecbac041b303dd07b48779a8799eb0cb690e2586579d3688dc1b35
d1eef0ba38bb403863612f78592d00ef2f5e6a99dfeb1b6b736ab673df425cc9fd59ff485fad2fac20ef067957ecbac041b303dd07b487790d3f99e3d12ad236
a978e94c36773adb44286f328a01b559e7f7f825b09e63995510c65f94ec5b7b20ef067957ecbac041b303dd07b48779a8799eb0cb690e2586579d3688dc1b35
45f4bb15bdf6921e4f51c2a695863130e2e5dd011558b9e975963efd3ee34e16cab60094c8b3ce68188ddffb90a57b770154ddef53507aca4bc23991d1afbf24
a978e94c36773adb44286f328a01b559e7f7f825b09e63995510c65f94ec5b7b20ef067957ecbac041b303dd07b48779a8799eb0cb690e2586579d3688dc1b35
$CDNENCFINISH
.ENDS
   .SUBCKT  DELAY_CELL_0   IN  VLH  VHL  START_UP  VDD5  OUT  GND
 **********  THIS IS PSPICE COMPATIBLE VERSION ***************
  $CDNENCSTART
eee8c5c7a2bc4b01f045f303678664e7916da0bae22e8cb0bba041dd67c69ce448ea70148a9ac1670c8926c1ac5057c8ccfcd77bf87ca9dcca65bc61b7a6f267
45f4bb15bdf6921ed7fd51eadc9d186071f8d0bea1b011ca546db9e11aa9dbdc2ca9930b3f7cff9fe847dda77d5f9443c5666d8e46546ebc4249bb06a4e27ba7
e476dd2dbeab07afd7fd51eadc9d18600837628594d9aa9e0cf780e63047d60ab70339cc98c7f92846c907e75ffa80f2e56fb42753db687f16237d58376574a3
e175e46269ccd732d7fd51eadc9d18600d5d2912058780d6b16cf6b4956c6ee301d37064f9d0872ae847dda77d5f9443c5666d8e46546ebc4249bb06a4e27ba7
6bfb5d61ac69ca8fd7fd51eadc9d18608d93b221bbcbea6c09d1cf7f886e0763711db42525827d1f0aa66fdae4f41b4d188ddffb90a57b7775af886ea212e78b
d1eef0ba38bb4038d7fd51eadc9d1860c9fbb644d97cdd9a7b69287f6b02ff6fb70339cc98c7f92846c907e75ffa80f2e56fb42753db687f16237d58376574a3
 $CDNENCFINISH
.ENDS
 .SUBCKT OR_2_0  VDD A B Y VSS 
 $CDNENCSTART
eee8c5c7a2bc4b01f045f303678664e7916da0bae22e8cb0bba041dd67c69ce448ea70148a9ac1670c8926c1ac5057c8ccfcd77bf87ca9dcca65bc61b7a6f267
97fc6e9cc43f1e72a0055d457f2992b352e659019812eb830fb7baaf9991d834274202a1ed1509b5e71f71e187584171c5666d8e46546ebc4249bb06a4e27ba7
08adbfabfb82a1d2a0055d457f2992b352e659019812eb83f1ba805cb8014c41274202a1ed1509b5e71f71e187584171c5666d8e46546ebc4249bb06a4e27ba7
917ade5d90a92a34d0c74cef739ec370ef3f28e0f0d120da5d170f79d1f1514f6ed136dee61633ab9c2b439a28bf65ce188ddffb90a57b7775af886ea212e78b
 c952445ecc85692ba0055d457f2992b352e659019812eb8354249d5d662998cd361f9badb44a61d56bee2eb614fec01b26325ba5e89f1cf6b807c577e05ad81e
c2356fa0b0fe3ea9e56fb42753db687f639d92f8758fa4704cd930066c3f498a26e751e8bd816821359a7297ec8d68cf4a6e0440a22f4b8493a21f1a486d0eea
23494907e770ef5873188b73d25d4f9c20ef067957ecbac041b303dd07b48779a8799eb0cb690e254730e17bcf479c18f7d49d361563279613a5833805b049e4
fa4cdbb98ab71d317a9ee2975a54f508188ddffb90a57b770154ddef53507acaaa1c9af660fa435e2cabaec1b9b77020028e67d24542dd32a75f403da0e02d5a
24ae5b476ef80ba595366a68b976dc4657e2c5aa80851370e56fb42753db687f639d92f8758fa4704cd930066c3f498a26e751e8bd816821a13f8c6f63545db5
 $CDNENCFINISH
.ENDS OR_2_0 
 .SUBCKT UNID_DELAY_0   VDD VIN TD VOUT VSS
 $CDNENCSTART
eee8c5c7a2bc4b01f045f303678664e7916da0bae22e8cb0bba041dd67c69ce448ea70148a9ac1670c8926c1ac5057c8ccfcd77bf87ca9dcca65bc61b7a6f267
628f36a0752840cdee811271fd027f4f0466a68fce13d1acbf77f3ad0951f77970e77814c9c8971a1086590b6210bdb936be05f07c91b2bf625cc0c0d29c9a4e
45abcf24a782b597a0055d457f2992b352e659019812eb831014b2321775dc1eb77c059a9ce7e87dce3481a4afea12e420ef067957ecbac03eb19ec0a372e61b
 92626a30b31bab19c9100e25578d4d4040f4aaf75aaf0d67decdbd020b3ac5aee4a497f5f721f850f52ff4df61f7477d188ddffb90a57b7775af886ea212e78b
 963346a9e764fc56c57d71a7e82d3412188ddffb90a57b770154ddef53507acaaa1c9af660fa435e2cabaec1b9b77020028e67d24542dd32a75f403da0e02d5a
611cc35640155913e9a95f5f6a5b6bf7ca0f96be607a9650dc38845be27642e9e82a669a98054250dc0a30fe75ad74c4a0f0538e417072c42376446c78912fe1
ee42618714e7495633bf57b30c802baaa26bc837d8d4c332a88a9dcc70a8f7944f3f88647b200374a7f4d71059fa5230ebae59c190e868db6405e8fcf1b2399a
 33f28823dd5119e95856d6d3802acf035b2338a22122fd243f60903ce9332e0f7c39bebe94738716a88a9dcc70a8f7944f3f88647b200374842f10e7085a931c
 af84a12e2467477e176f569d23af885cb5717e1a21c30ccf32ac3f710d4b54e8df1e22ae8668689f765f38e9a804ec4236be05f07c91b2bf625cc0c0d29c9a4e
 $CDNENCFINISH
.ENDS UNID_DELAY_0 
 .SUBCKT COMP_SE VDD VP VN VO VSS
 $CDNENCSTART
eee8c5c7a2bc4b01f045f303678664e7916da0bae22e8cb0bba041dd67c69ce448ea70148a9ac1670c8926c1ac5057c8ccfcd77bf87ca9dcca65bc61b7a6f267
e93c5c830b64d2dbd9b337e692a73b4372957c6cd8e026764a04a731b09ab3f8c481d5b1c27c2d50be2108b728a7f10420ef067957ecbac03eb19ec0a372e61b
0ef271de5a0e4e2a41c641296792e5d32d1975fe69f1273ee2af75b8445acede9fc72641e01403b5889a3ffe2a94264351d1b7672c28f41d068ca29793a4859e
0234ecda63bd45843b949f76b9d6145319fe18ab29413769a88a9dcc70a8f7944f3f88647b200374a7f4d71059fa5230ebae59c190e868db6405e8fcf1b2399a
 $CDNENCFINISH
.ENDS COMP_SE
 .SUBCKT AND_2_1INV_0  VDD A B Y VSS 
 $CDNENCSTART
eee8c5c7a2bc4b01f045f303678664e7916da0bae22e8cb0bba041dd67c69ce448ea70148a9ac1670c8926c1ac5057c8ccfcd77bf87ca9dcca65bc61b7a6f267
917ade5d90a92a34d0c74cef739ec370ef3f28e0f0d120da5d170f79d1f1514f6ed136dee61633ab9c2b439a28bf65ce188ddffb90a57b7775af886ea212e78b
97fc6e9cc43f1e72a0055d457f2992b352e659019812eb830fb7baaf9991d8341e9e7bdc1422596ce71f71e187584171c5666d8e46546ebc4249bb06a4e27ba7
08adbfabfb82a1d2a0055d457f2992b352e659019812eb83f1ba805cb8014c41274202a1ed1509b5e71f71e187584171c5666d8e46546ebc4249bb06a4e27ba7
 c952445ecc85692ba0055d457f2992b352e659019812eb8354249d5d662998cda20cfa3ba196e5a86bee2eb614fec01b26325ba5e89f1cf6b807c577e05ad81e
c2356fa0b0fe3ea9e56fb42753db687f639d92f8758fa4704cd930066c3f498a26e751e8bd816821359a7297ec8d68cf4a6e0440a22f4b8493a21f1a486d0eea
23494907e770ef5873188b73d25d4f9c20ef067957ecbac041b303dd07b48779a8799eb0cb690e254730e17bcf479c18f7d49d361563279613a5833805b049e4
fa4cdbb98ab71d317a9ee2975a54f508188ddffb90a57b770154ddef53507acaaa1c9af660fa435e2cabaec1b9b77020028e67d24542dd32a75f403da0e02d5a
24ae5b476ef80ba595366a68b976dc4657e2c5aa80851370e56fb42753db687f639d92f8758fa4704cd930066c3f498a26e751e8bd816821a13f8c6f63545db5
 $CDNENCFINISH
.ENDS AND_2_1INV_0 
 .SUBCKT NOR_SR_LATCH_0  VDD R S Q QB VSS 
 $CDNENCSTART
eee8c5c7a2bc4b01f045f303678664e7916da0bae22e8cb0bba041dd67c69ce448ea70148a9ac1670c8926c1ac5057c8ccfcd77bf87ca9dcca65bc61b7a6f267
ce368d094a571bbcc9746353b1aed8ae95e36252775e5adb0b007b01713aa67039859341766fc92cc5666d8e46546ebc263e4096afdf9f31469f1210272acac3
b255959c4164c09058df2bf96ded5281dc555c2821e12eac0b007b01713aa67039859341766fc92cc5666d8e46546ebc263e4096afdf9f31469f1210272acac3
 b24acadc7aac7695686d745882f4d9d136be05f07c91b2bfbadb4e742c5da009036baf4635d5d1fbf93ec77eca5e24ced6d6f8bc9df68d94afd9594ac7b58506
725bfc4c8ac67593351baff0d09ebc2020ef067957ecbac041b303dd07b48779a8799eb0cb690e254730e17bcf479c18f7d49d361563279613a5833805b049e4
d7737422fd242e3fd6f1409a00398c6936be05f07c91b2bfbadb4e742c5da009036baf4635d5d1fbf93ec77eca5e24ced6d6f8bc9df68d94afd9594ac7b58506
0c5bfe6944ada2f9351baff0d09ebc2020ef067957ecbac041b303dd07b48779a8799eb0cb690e254730e17bcf479c18f7d49d361563279613a5833805b049e4
 $CDNENCFINISH
.ENDS NOR_SR_LATCH_0 
 .SUBCKT NOR_2  VDD A B Y VSS 
 $CDNENCSTART
eee8c5c7a2bc4b01f045f303678664e7916da0bae22e8cb0bba041dd67c69ce448ea70148a9ac1670c8926c1ac5057c8ccfcd77bf87ca9dcca65bc61b7a6f267
97fc6e9cc43f1e72a0055d457f2992b352e659019812eb83939bae219b06534d6e05d22c5759c0d9a88a9dcc70a8f7944f3f88647b200374842f10e7085a931c
08adbfabfb82a1d2a0055d457f2992b352e659019812eb83bfa1bc1c69e40b306e05d22c5759c0d9a88a9dcc70a8f7944f3f88647b200374842f10e7085a931c
917ade5d90a92a34d0c74cef739ec370ef3f28e0f0d120da5d170f79d1f1514f6ed136dee61633ab9c2b439a28bf65ce188ddffb90a57b7775af886ea212e78b
 8591678a12047b74d33d87296cfa2878f03ffeaf6f4cc24948fd553d2d937aeeeeff46e2e29be52886d7aaf828690538974e326e6069d0f69bc2b1a9789779ef
 $CDNENCFINISH
.ENDS
     .SUBCKT DELAY_VOD_TEMP_0   VOD TD
$CDNENCSTART
eee8c5c7a2bc4b01f045f303678664e7916da0bae22e8cb0bba041dd67c69ce448ea70148a9ac1670c8926c1ac5057c8ccfcd77bf87ca9dcca65bc61b7a6f267
31fcef51370c81879b424c94c1c8bd0c28118905f45b46ff7bada0f74b8d6de0666049903bf83ff7ac50997652657ab715799cf3d2e581f9a8e696cd42d9a9ca
67ada83abe4afdb57bada0f74b8d6de01df8082ada64b04a0f5bb5b9c5d4fbafee5b5520b3b5cb4d9c2cfde3b677379bcc4195591af40ee8f51bc3a56f0a63f2
6d8b726ab18ff5c5d8988f876bd7998cad6d325ea5b9b9cdca0f96be607a9650dc38845be27642e9e82a669a98054250dc0a30fe75ad74c4e9714d6df705d2a0
31fcef51370c81875b420eefeda7405c28118905f45b46ff7bada0f74b8d6de0666049903bf83ff7ac50997652657ab715799cf3d2e581f9a8e696cd42d9a9ca
67ada83abe4afdb57bada0f74b8d6de01df8082ada64b04a0f5bb5b9c5d4fbafee5b5520b3b5cb4d9c2cfde3b677379bcc4195591af40ee8f51bc3a56f0a63f2
6d8b726ab18ff5c5d8988f876bd7998c9d4d1d3b2adad434188ddffb90a57b770154ddef53507acaaa1c9af660fa435e2cabaec1b9b770209363f80cf1a6e661
453df467b08158fe3ce90829a07bb94f5988077c9765c7d17bada0f74b8d6de07563e0328363571ea4f3798008478c8874ccbad9e823e6f63da09bc568efa8d4
53f9a0330c1a6686f58c5e5b28b2e36a2d261cbb480f79a8a88a9dcc70a8f7944f3f88647b200374a7f4d71059fa5230ebae59c190e868db6405e8fcf1b2399a
a40e37e30e9e4cab2fae19bfbc2b1e2714f0fe1379ceba2b64377154655e832ce56fb42753db687f639d92f8758fa4704cd930066c3f498a2dc8d6849bd952f6
 31db579f98d192dd35297445c7b7be9b9b8d3130ea3e2a38a540c3ac5929942aa7677160a7e31789002222cced8495fc765a254ae230050b35ccfd1d133fe343
 *THIS IS BASED ON MATHLAB SIMULATION AND MODIFICATION FOR A *SPECIFIC DATA SHEET.
   $CDNENCFINISH
.ENDS  DELAY_VOD_TEMP_0 
    **************************************
**                                  **
**                                  **
**                                  **
**                                  **
**************************************
 .SUBCKT CMRR_0   VI  VO  GNDF PARAMS: CMRR = 130 FCMRR = 1.6K
$CDNENCSTART
eee8c5c7a2bc4b01f045f303678664e7916da0bae22e8cb0bba041dd67c69ce448ea70148a9ac1670c8926c1ac5057c8ccfcd77bf87ca9dcca65bc61b7a6f267
02f5b84aeeabda690c967f19b5cff46da772ed59508127de36be05f07c91b2bfbadb4e742c5da009036baf4635d5d1fbf93ec77eca5e24ce85c6ba5be16eeebd
78caa60348a24a0d07d3bf73ccae71cda88a9dcc70a8f7944f3f88647b200374a7f4d71059fa5230ebae59c190e868dbc648f185b971d14ea43cef84d6740938
f389bcd064c34a3979c19966496fb3e237b1d5ec8421674c1adf4e39b993e47bd9586b060ff88716ca0f96be607a9650dc38845be27642e9a881750cbea0b0e3
5c4e6d12158662c679c19966496fb3e2a6447f9c0658c8c6f967a0f5f45920d5f95f99d726ea4f0c0f5bb5b9c5d4fbafee5b5520b3b5cb4d2ecf042c86ddc316
1a703853a82b2138109185796604f007890678e76056bf620b84675c82dbaa58e56fb42753db687f639d92f8758fa4704cd930066c3f498a2dc8d6849bd952f6
18593b7f0e4e2b4cfcc773973ef647b1ca0f96be607a9650dc38845be27642e9e82a669a98054250dc0a30fe75ad74c4a0f0538e417072c42376446c78912fe1
00b4a60f833ace12e0db3fd7ec7357672b8a1343e65caceb0f5bb5b9c5d4fbafee5b5520b3b5cb4d9c2cfde3b677379bcc4195591af40ee8f51bc3a56f0a63f2
41ae67d21015b6acb292997aa7f35eec57e2c5aa80851370e56fb42753db687f639d92f8758fa4704cd930066c3f498a26e751e8bd816821a13f8c6f63545db5
$CDNENCFINISH
.ENDS
  *CURRENT SOURCE  ARASH
.SUBCKT IBIAS_0  IOUT+ IOUT-
*              
 $CDNENCSTART
eee8c5c7a2bc4b01f045f303678664e7916da0bae22e8cb0bba041dd67c69ce448ea70148a9ac1670c8926c1ac5057c8ccfcd77bf87ca9dcca65bc61b7a6f267
3158f17b22666a1ccedb9d17f572419af07873fd624216ba4935e3fa23ede392a86113b22ef6395dded2260122f097fea88a9dcc70a8f794baed293752c4cca2
  $CDNENCFINISH
.ENDS IBIAS_0 
  *IOFFSET IS ADDED TO IBIAS VS TEMPCURVE  ARASH
.SUBCKT IBIAS_1  IOUT+ IOUT-
  $CDNENCSTART
eee8c5c7a2bc4b01f045f303678664e7916da0bae22e8cb0bba041dd67c69ce448ea70148a9ac1670c8926c1ac5057c8ccfcd77bf87ca9dcca65bc61b7a6f267
3158f17b22666a1ccedb9d17f572419af07873fd624216ba9605009545703bdbdcee2ca1058fd9fc8ba9d0d31d16d8ca939c6c4f62dcdf7c58bb71a5626fe438
2c1dc4ded1baa1f71c120abe5746752236be05f07c91b2bfbadb4e742c5da009036baf4635d5d1fbf93ec77eca5e24ced6d6f8bc9df68d94afd9594ac7b58506
  $CDNENCFINISH
.ENDS IBIAS_1 
  **************************************
**                                  **
**                                  **
**                                  **
**                                  **
**************************************
 .SUBCKT PSRR_0   VDD  VSS  VI  VO  GNDF PARAMS: PSRR = 130 FPSRR = 1.6
$CDNENCSTART
eee8c5c7a2bc4b01f045f303678664e7916da0bae22e8cb0bba041dd67c69ce448ea70148a9ac1670c8926c1ac5057c8ccfcd77bf87ca9dcca65bc61b7a6f267
02f5b84aeeabda690c967f19b5cff46da772ed59508127de36be05f07c91b2bfbadb4e742c5da009036baf4635d5d1fbf93ec77eca5e24ce85c6ba5be16eeebd
78caa60348a24a0d8a58133a24d815aea88a9dcc70a8f7944f3f88647b200374a7f4d71059fa5230ebae59c190e868dbc648f185b971d14ea43cef84d6740938
f389bcd064c34a3970e7b0a075df940237b1d5ec8421674cd76eb13f2146c2cbbb861eb87ec2adeeca0f96be607a9650dc38845be27642e9a881750cbea0b0e3
5c4e6d12158662c670e7b0a075df9402b0a12d125b79fbbcbbaf0eab63324cfef95f99d726ea4f0c0f5bb5b9c5d4fbafee5b5520b3b5cb4d2ecf042c86ddc316
1a703853a82b2138a746ac9a30319025bd3d01eb7e9a29f70b84675c82dbaa58e56fb42753db687f639d92f8758fa4704cd930066c3f498a2dc8d6849bd952f6
18593b7f0e4e2b4cfcc8bfab647d53b0ca0f96be607a9650dc38845be27642e9e82a669a98054250dc0a30fe75ad74c4a0f0538e417072c42376446c78912fe1
00b4a60f833ace12f5e0c7f83222d0102b8a1343e65caceb0f5bb5b9c5d4fbafee5b5520b3b5cb4d9c2cfde3b677379bcc4195591af40ee8f51bc3a56f0a63f2
7ff5fce21e905ef904045bb961bb05d157e2c5aa80851370e56fb42753db687f639d92f8758fa4704cd930066c3f498a26e751e8bd816821a13f8c6f63545db5
be883ebaf18c4c564453346c97bc2153a88a9dcc70a8f7944f3f88647b200374a7f4d71059fa5230ebae59c190e868dbc648f185b971d14ea43cef84d6740938
$CDNENCFINISH
.ENDS
  *TG IDEAL DIODE
.SUBCKT IDEAL_D_0  A C
$CDNENCSTART
eee8c5c7a2bc4b01f045f303678664e7916da0bae22e8cb0bba041dd67c69ce448ea70148a9ac1670c8926c1ac5057c8ccfcd77bf87ca9dcca65bc61b7a6f267
4a9a49a6883c86148c23a71e537dd40e0f5bb5b9c5d4fbafee5b5520b3b5cb4d9c2cfde3b677379bcc4195591af40ee898cdaf8f8ba0a4a77ab12683f831af54
d7072740a938f0e77ba1e21f07244132f4a18f6b8b080e420d54a35c8ca8705facdd14361537ca84ca0f96be607a9650dc38845be27642e9a881750cbea0b0e3
$CDNENCFINISH
.ENDS IDEAL_D_0 
  **************************************
**                                  **
**                                  ** 
**                                  **          
**                                  **
**************************************
 .SUBCKT OUT_CURRENT_CLAMP_PD_0   IN  OUT  PD  
+ PARAMS: RON = 1 ROFF = 1G   VON = 0.5 IMAX = 10M  IMIN = -10M
$CDNENCSTART
eee8c5c7a2bc4b01f045f303678664e7916da0bae22e8cb0bba041dd67c69ce448ea70148a9ac1670c8926c1ac5057c8ccfcd77bf87ca9dcca65bc61b7a6f267
c620a4595db86b5096e69fe9f13077f2c8cb48cdd640bafc9b1f3ec06586468ef55799e738b4a12391435f8911b1101184878a89892f13103721bce94e477005
b0ae481938e517f4f55799e738b4a12367cef74df08e99d784878a89892f1310016fbad92a0a4905294b27f71f6659a5c2356fa0b0fe3ea9ca65bc61b7a6f267
$CDNENCFINISH
.ENDS
  **************************************
**                                  **
**                                  **
**                                  **
**                                  **
**************************************
 .SUBCKT VCLAMP_W_SENSE_0   VDD  VSS  VI  VO VIMON  GNDF
+ PARAMS: VMAXIO = 0.1 VMINIO = 0.1 SLOPE = 20
$CDNENCSTART
eee8c5c7a2bc4b01f045f303678664e7916da0bae22e8cb0bba041dd67c69ce448ea70148a9ac1670c8926c1ac5057c8ccfcd77bf87ca9dcca65bc61b7a6f267
fda95f7e31081d56e36e25919db501b28492e52ca990713736b8600e40f99260e81ee81c46db2a0baa5a88bace811bfee098bc98036e3dc1f195b78d78b6ac24
16c074eb3db73fe50f5bb5b9c5d4fbafee5b5520b3b5cb4d9c2cfde3b677379bcc4195591af40ee898cdaf8f8ba0a4a7d31721b4b7a3e212fb4f5e2bf83df8f3
9ecabdafdefaaedb45c8365f2cd8c0768492e52ca990713736b8600e40f99260e81ee81c46db2a0baa5a88bace811bfee098bc98036e3dc15a904deba828003a
16c074eb3db73fe50f5bb5b9c5d4fbafee5b5520b3b5cb4d9c2cfde3b677379bcc4195591af40ee898cdaf8f8ba0a4a7d31721b4b7a3e212fb4f5e2bf83df8f3
*EPCLIP  VDD_CLP 0 VALUE = {V(VDD,GNDF) -  VMAXIO}
*ENCLIP  VSS_CLP 0 VALUE = {V(VSS,GNDF)  + VMINIO}
dc1e61711e8908f7d6f10819d39dfcd59913139925746ab0a01a192330666f11dd40f2ecbb5ed08cc7efa790c30367447ecff93b452412b6f11480ebd2c9124f
f8e6c34a2e2be5ee20ef067957ecbac041b303dd07b48779a8799eb0cb690e254730e17bcf479c18f7d49d3615632796683e0ed5c46187c59a52c706c4f3db9f
$CDNENCFINISH
.ENDS
   *********************************************
.SUBCKT DELAY_LINE_0  VI VO 
$CDNENCSTART
eee8c5c7a2bc4b01f045f303678664e7916da0bae22e8cb0bba041dd67c69ce448ea70148a9ac1670c8926c1ac5057c8ccfcd77bf87ca9dcca65bc61b7a6f267
efeb76d656a6c9f9235b91dff98842a5a88a9dcc70a8f7944f3f88647b200374a7f4d71059fa5230ebae59c190e868dbc648f185b971d14ea43cef84d6740938
9a999b9a18c6005b639f979a9eb6efc2a5fb918f6896afb39e319037e975d4ed47949a8b1805e3f1c5666d8e46546ebc263e4096afdf9f31469f1210272acac3
6570104bcd3e67b5a85cd90c2f26cc1a0f5bb5b9c5d4fbafee5b5520b3b5cb4d9c2cfde3b677379bcc4195591af40ee898cdaf8f8ba0a4a77ab12683f831af54
4f31c97440c1ac19d0892e29d4e6a94cca0f96be607a9650dc38845be27642e9e82a669a98054250dc0a30fe75ad74c4a0f0538e417072c42376446c78912fe1
 $CDNENCFINISH
.ENDS DELAY_LINE_0 
  **************************************
**                                  **
**                                  **
**                                  **
**                                  **
**************************************
 .SUBCKT AMETER_0   VI  VO VIMON
+ PARAMS: GAIN = 1
$CDNENCSTART
eee8c5c7a2bc4b01f045f303678664e7916da0bae22e8cb0bba041dd67c69ce448ea70148a9ac1670c8926c1ac5057c8ccfcd77bf87ca9dcca65bc61b7a6f267
5db3dcadba06cef8b21b55b333b388f3d5b4651df4a506d90f5bb5b9c5d4fbafee5b5520b3b5cb4d9c2cfde3b677379bcc4195591af40ee8f51bc3a56f0a63f2
df2c487641b742281e9e3bc1b4437b93dc051b9a91e3562f891519ceaa3c519130003ace64f3b559ca0f96be607a9650dc38845be27642e9a881750cbea0b0e3
$CDNENCFINISH
.ENDS
       .SUBCKT DIVIDE_BY_N_0  VIN VOUT PARAMS: N = 4
 $CDNENCSTART
eee8c5c7a2bc4b01f045f303678664e7916da0bae22e8cb0bba041dd67c69ce448ea70148a9ac1670c8926c1ac5057c8ccfcd77bf87ca9dcca65bc61b7a6f267
13f1d412f05a079f8492e52ca9907137d087b6142c169361567b42dcfa8d8ec836be05f07c91b2bfbadb4e742c5da009036baf4635d5d1fb2bc3dae93f05598b
 $CDNENCFINISH
.ENDS 
  .SUBCKT  ABSOLUTE_0   VIP VIM VO
$CDNENCSTART