Version 4
SHEET 1 912 680
WIRE -1664 -144 -1696 -144
WIRE -1568 -144 -1664 -144
WIRE -608 -144 -640 -144
WIRE -512 -144 -608 -144
WIRE -1696 -96 -1696 -144
WIRE -640 -96 -640 -144
WIRE -1568 0 -1568 -144
WIRE -512 0 -512 -144
WIRE 224 32 224 -16
WIRE -1696 48 -1696 -16
WIRE -1632 48 -1696 48
WIRE -640 48 -640 -16
WIRE -576 48 -640 48
WIRE -1440 64 -1440 32
WIRE -1088 64 -1088 32
WIRE -384 64 -384 32
WIRE -16 64 -16 32
WIRE -1568 160 -1568 96
WIRE -1472 160 -1568 160
WIRE -1440 160 -1440 128
WIRE -1440 160 -1472 160
WIRE -1392 160 -1440 160
WIRE -1104 160 -1136 160
WIRE -1088 160 -1088 128
WIRE -1088 160 -1104 160
WIRE -1072 160 -1088 160
WIRE -512 160 -512 96
WIRE -416 160 -512 160
WIRE -384 160 -384 128
WIRE -384 160 -416 160
WIRE -320 160 -384 160
WIRE -32 160 -64 160
WIRE -16 160 -16 128
WIRE -16 160 -32 160
WIRE 16 160 -16 160
WIRE -1472 192 -1472 160
WIRE -1104 192 -1104 160
WIRE -416 192 -416 160
WIRE -32 192 -32 160
WIRE -1568 224 -1568 160
WIRE -512 224 -512 160
WIRE -1472 288 -1472 256
WIRE -1104 288 -1104 256
WIRE -416 288 -416 256
WIRE -32 288 -32 256
WIRE -192 304 -192 256
WIRE -1264 320 -1264 256
WIRE -1696 336 -1696 48
WIRE -1648 336 -1696 336
WIRE -1568 336 -1568 304
WIRE -1568 336 -1584 336
WIRE -640 336 -640 48
WIRE -592 336 -640 336
WIRE -512 336 -512 304
WIRE -512 336 -528 336
WIRE -1696 400 -1696 336
WIRE -640 400 -640 336
WIRE -1568 448 -1568 336
WIRE -1568 448 -1648 448
WIRE -512 448 -512 336
WIRE -512 448 -592 448
WIRE -1568 464 -1568 448
WIRE -512 464 -512 448
WIRE -1696 560 -1696 496
WIRE -1568 560 -1568 544
WIRE -1568 560 -1696 560
WIRE -640 560 -640 496
WIRE -512 560 -512 544
WIRE -512 560 -640 560
WIRE -1696 576 -1696 560
WIRE -640 576 -640 560
FLAG -1696 576 0
FLAG -640 576 0
FLAG 224 112 0
FLAG 224 -16 40V
FLAG -608 -144 40V
FLAG -1664 -144 40V
FLAG -1264 320 0
FLAG -192 304 0
FLAG -1072 160 Vcc
FLAG 16 160 Vdd
FLAG -1104 288 0
FLAG -1472 288 0
FLAG -1440 32 0
FLAG -1088 32 0
FLAG -32 288 0
FLAG -16 32 0
FLAG -416 288 0
FLAG -384 32 0
SYMBOL res -1712 -112 R0
SYMATTR InstName R1
SYMATTR Value 10k
SYMBOL npn -1632 0 R0
SYMATTR InstName Q1
SYMATTR Value Qbd135
SYMBOL res -1584 208 R0
SYMATTR InstName R2
SYMATTR Value 22k
SYMBOL res -1584 448 R0
SYMATTR InstName R3
SYMATTR Value 2.7k
SYMBOL cap -1584 320 R90
WINDOW 0 0 32 VBottom 2
WINDOW 3 32 32 VTop 2
SYMATTR InstName C1
SYMATTR Value 100p
SYMBOL TL431 -1696 448 M0
SYMATTR InstName U1
SYMBOL res -656 -112 R0
SYMATTR InstName R4
SYMATTR Value 10k
SYMBOL npn -576 0 R0
SYMATTR InstName Q2
SYMATTR Value Qbd135
SYMBOL res -528 208 R0
SYMATTR InstName R5
SYMATTR Value 10k
SYMBOL res -528 448 R0
SYMATTR InstName R6
SYMATTR Value 2.7k
SYMBOL cap -528 320 R90
WINDOW 0 0 32 VBottom 2
WINDOW 3 32 32 VTop 2
SYMATTR InstName C2
SYMATTR Value 100p
SYMBOL TL431 -640 448 M0
SYMATTR InstName U2
SYMBOL voltage 224 16 R0
SYMATTR InstName V1
SYMATTR Value 40
SYMBOL 7815 -1264 160 R0
SYMATTR InstName U3
SYMBOL 7805 -192 160 R0
SYMATTR InstName U4
SYMBOL cap -1424 128 R180
WINDOW 0 24 56 Left 2
WINDOW 3 24 8 Left 2
SYMATTR InstName C3
SYMATTR Value 100n
SYMBOL cap -1072 128 R180
WINDOW 0 24 56 Left 2
WINDOW 3 24 8 Left 2
SYMATTR InstName C4
SYMATTR Value 100n
SYMBOL polcap -1120 192 R0
SYMATTR InstName C5
SYMATTR Value 1m
SYMBOL polcap -1488 192 R0
SYMATTR InstName C6
SYMATTR Value 1m
SYMBOL cap 0 128 R180
WINDOW 0 24 56 Left 2
WINDOW 3 24 8 Left 2
SYMATTR InstName C7
SYMATTR Value 100n
SYMBOL polcap -48 192 R0
SYMATTR InstName C8
SYMATTR Value 1m
SYMBOL cap -368 128 R180
WINDOW 0 24 56 Left 2
WINDOW 3 24 8 Left 2
SYMATTR InstName C9
SYMATTR Value 100n
SYMBOL polcap -432 192 R0
SYMATTR InstName C10
SYMATTR Value 1m
TEXT -1400 -152 Left 2 !.include BD135.LIB
TEXT -1168 344 Left 2 !.tran 1 uic
