Version 4
SHEET 1 912 680
WIRE -960 -144 -1072 -144
WIRE -832 -144 -960 -144
WIRE 96 -144 -16 -144
WIRE 224 -144 96 -144
WIRE -960 -96 -960 -144
WIRE 96 -96 96 -144
WIRE -1072 -64 -1072 -144
WIRE -16 -64 -16 -144
WIRE -832 0 -832 -144
WIRE 224 0 224 -144
WIRE -960 48 -960 -16
WIRE -896 48 -960 48
WIRE 96 48 96 -16
WIRE 160 48 96 48
WIRE -832 160 -832 96
WIRE -688 160 -832 160
WIRE -608 160 -688 160
WIRE 224 160 224 96
WIRE 320 160 224 160
WIRE 448 160 320 160
WIRE -832 224 -832 160
WIRE 224 224 224 160
WIRE -960 336 -960 48
WIRE -912 336 -960 336
WIRE -832 336 -832 304
WIRE -832 336 -848 336
WIRE 96 336 96 48
WIRE 144 336 96 336
WIRE 224 336 224 304
WIRE 224 336 208 336
WIRE -960 400 -960 336
WIRE 96 400 96 336
WIRE -832 448 -832 336
WIRE -832 448 -912 448
WIRE 224 448 224 336
WIRE 224 448 144 448
WIRE -832 464 -832 448
WIRE 224 464 224 448
WIRE -960 560 -960 496
WIRE -832 560 -832 544
WIRE -832 560 -960 560
WIRE 96 560 96 496
WIRE 224 560 224 544
WIRE 224 560 96 560
WIRE -960 576 -960 560
WIRE 96 576 96 560
FLAG -960 576 0
FLAG -1072 16 0
FLAG 96 576 0
FLAG -16 16 0
FLAG -688 160 Vcc
FLAG 320 160 Vdd
SYMBOL res -976 -112 R0
SYMATTR InstName R8
SYMATTR Value 10k
SYMBOL npn -896 0 R0
SYMATTR InstName Q1
SYMATTR Value Qbd135
SYMBOL res -848 208 R0
SYMATTR InstName R9
SYMATTR Value 15k
SYMBOL res -848 448 R0
SYMATTR InstName R10
SYMATTR Value 2.7k
SYMBOL cap -848 320 R90
WINDOW 0 0 32 VBottom 2
WINDOW 3 32 32 VTop 2
SYMATTR InstName C1
SYMATTR Value 100p
SYMBOL TL431 -960 448 M0
SYMATTR InstName U3
SYMBOL voltage -1072 -80 R0
SYMATTR InstName V3
SYMATTR Value 40
SYMBOL res 80 -112 R0
SYMATTR InstName R1
SYMATTR Value 10k
SYMBOL npn 160 0 R0
SYMATTR InstName Q2
SYMATTR Value Qbd135
SYMBOL res 208 208 R0
SYMATTR InstName R2
SYMATTR Value 2.7k
SYMBOL res 208 448 R0
SYMATTR InstName R3
SYMATTR Value 2.7k
SYMBOL cap 208 320 R90
WINDOW 0 0 32 VBottom 2
WINDOW 3 32 32 VTop 2
SYMATTR InstName C2
SYMATTR Value 100p
SYMBOL TL431 96 448 M0
SYMATTR InstName U1
SYMBOL voltage -16 -80 R0
SYMATTR InstName V1
SYMATTR Value 40
TEXT -434 344 Left 2 !.tran 1
TEXT -1400 -152 Left 2 !.include BD135.LIB
