Version 4
SHEET 1 3040 976
WIRE -1552 176 -2736 176
WIRE -1520 176 -1552 176
WIRE -1552 240 -1552 176
WIRE -1616 432 -2272 432
WIRE -1552 432 -1552 320
WIRE -1552 432 -1616 432
WIRE -1536 432 -1552 432
WIRE -2736 448 -2736 176
WIRE -2704 448 -2736 448
WIRE -2576 448 -2624 448
WIRE -2432 448 -2576 448
WIRE -2432 464 -2432 448
WIRE -2272 464 -2272 432
WIRE -2272 464 -2432 464
WIRE -1744 464 -2080 464
WIRE -2080 480 -2080 464
WIRE -1616 480 -1616 432
WIRE -2432 544 -2432 464
WIRE -2576 592 -2576 528
WIRE -2480 592 -2576 592
WIRE -2736 608 -2736 448
WIRE -2272 608 -2272 464
WIRE -2176 608 -2272 608
WIRE -2576 640 -2576 592
WIRE -1744 768 -1744 464
WIRE -1536 768 -1744 768
WIRE -2736 800 -2736 688
WIRE -2576 800 -2576 720
WIRE -2576 800 -2736 800
WIRE -2432 800 -2432 640
WIRE -2432 800 -2576 800
WIRE -2080 800 -2080 736
WIRE -2080 800 -2432 800
FLAG -1616 480 0
SYMBOL 7905 -2080 608 M270
SYMATTR InstName U1
SYMBOL voltage -2736 592 R0
SYMATTR InstName V1
SYMATTR Value 30
SYMBOL TL431 -2432 592 R0
SYMATTR InstName U2
SYMBOL res -2592 432 R0
SYMATTR InstName R1
SYMATTR Value 300k
SYMBOL res -2592 624 R0
SYMATTR InstName R2
SYMATTR Value 100k
SYMBOL res -2608 432 R90
WINDOW 0 0 56 VBottom 2
WINDOW 3 32 56 VTop 2
SYMATTR InstName R3
SYMATTR Value 50k
SYMBOL res -1568 224 R0
SYMATTR InstName R4
SYMATTR Value 10
TEXT 64 -376 Left 2 !.include BC558B.lib
TEXT 64 -408 Left 2 !.include TL082.lib
TEXT 64 -440 Left 2 !.include BC548B.lib
TEXT 328 -440 Left 2 !.include MJE2955.LIB
TEXT 328 -408 Left 2 !.include Q2SC4793.lib
TEXT 328 -368 Left 2 !.include BD135.LIB
TEXT 656 -440 Left 2 !.include BC548B.lib
TEXT 656 -400 Left 2 !.include 1N4148.lib
TEXT 656 -360 Left 2 !.include tl431.lib
TEXT 336 -304 Left 2 !.include TIP31C.LIB
TEXT 336 -264 Left 2 !.include Qmje15032.LIB
TEXT -2768 808 Left 2 !.tran 0 1m 0.5m
