.MODEL Q2SC4793 NPN (
+ IS=1.8E-09
+ NF=1.43
+ BF=146.38
+ VAF=273
+ IKF=2.6
+ NK=0.95
+ ISE=6.286997E-10
+ NE=2.223629
+ BR=4
+ NR=1
+ VAR=20
+ IKR=1.05
+ RE=0
+ RB=1.7
+ RC=1.25
+ CJE=5.96964E-10
+ VJE=1.1
+ MJE=0.5
+ CJC=5.78E-11
+ VJC=0.3
+ MJC=0.3
+ TF=1.22678E-09
+ FC=0.5
+ ITF=10
+ XTF=99.52253015
+ TR=983N)